@<TRIPOS>MOLECULE
CHD
 69 72 0 0 0
SMALL
USER_CHARGES

@<TRIPOS>ATOM
      1 C1          1.8150    0.7750   -4.0420 C.3     1  CHD01       0.0000
      2 C2          1.7910   -0.7020   -4.4400 C.3     1  CHD01       0.0000
      3 C3          0.6010   -0.9620   -5.3650 C.3     1  CHD01       0.2800
      4 O3          0.5790   -2.3420   -5.7350 O.3     1  CHD01      -0.6800
      5 C4         -0.6960   -0.6080   -4.6380 C.3     1  CHD01       0.0000
      6 C5         -0.6730    0.8690   -4.2400 C.3     1  CHD01       0.0000
      7 C6         -1.9720    1.2220   -3.5140 C.3     1  CHD01       0.0000
      8 C7         -2.1050    0.3620   -2.2550 C.3     1  CHD01       0.2800
      9 O7         -2.1250   -1.0180   -2.6220 O.3     1  CHD01      -0.6800
     10 C8         -0.9160    0.6260   -1.3300 C.3     1  CHD01       0.0000
     11 C9          0.3950    0.2750   -2.0490 C.3     1  CHD01       0.0000
     12 C10         0.5170    1.1280   -3.3130 C.3     1  CHD01       0.0000
     13 C11         1.6090    0.4940   -1.1530 C.3     1  CHD01       0.0000
     14 C12         1.4730   -0.2730    0.1720 C.3     1  CHD01       0.2800
     15 O12         1.4020   -1.6770   -0.0840 O.3     1  CHD01      -0.6800
     16 C13         0.1760    0.1310    0.8400 C.3     1  CHD01       0.0000
     17 C14        -1.0030   -0.2510   -0.0960 C.3     1  CHD01       0.0000
     18 C15        -2.2130   -0.0090    0.8130 C.3     1  CHD01       0.0000
     19 C16        -1.7420   -0.5810    2.1780 C.3     1  CHD01       0.0000
     20 C17        -0.1940   -0.5360    2.1600 C.3     1  CHD01       0.0000
     21 C18         0.1300    1.6530    0.9980 C.3     1  CHD01       0.0000
     22 C19         0.5410    2.6040   -2.9120 C.3     1  CHD01       0.0000
     23 C20         0.3250    0.2910    3.3370 C.3     1  CHD01       0.0000
     24 C21         1.8510    0.3800    3.2640 C.3     1  CHD01       0.0000
     25 C22        -0.0830   -0.3770    4.6510 C.3     1  CHD01       0.0000
     26 C23         0.4360    0.4500    5.8280 C.3     1  CHD01       0.0610
     27 O25        -0.6040   -1.2350    7.1050 O.2     1  CHD01      -0.5700
     28 C24         0.0330   -0.2080    7.1220 C.2     1  CHD01       0.6590
     29 O26         0.3820    0.3440    8.2940 O.3     1  CHD01      -0.6500
     30 H11         2.6640    0.9600   -3.3830 H       1  CHD01       0.0000
     31 H12A        1.9080    1.3910   -4.9370 H       1  CHD01       0.0000
     32 H21         1.6980   -1.3170   -3.5450 H       1  CHD01       0.0000
     33 H22         2.7170   -0.9530   -4.9580 H       1  CHD01       0.0000
     34 H3          0.6960   -0.3470   -6.2600 H       1  CHD01       0.0000
     35 HO3         1.4130   -2.5230   -6.1890 H       1  CHD01       0.4000
     36 H41        -0.7910   -1.2230   -3.7430 H       1  CHD01       0.0000
     37 H42        -1.5440   -0.7930   -5.2970 H       1  CHD01       0.0000
     38 H5         -0.5770    1.4840   -5.1350 H       1  CHD01       0.0000
     39 H61        -2.8190    1.0350   -4.1730 H       1  CHD01       0.0000
     40 H62        -1.9560    2.2750   -3.2330 H       1  CHD01       0.0000
     41 H7         -3.0310    0.6140   -1.7390 H       1  CHD01       0.0000
     42 HO7        -2.8880   -1.1410   -3.2040 H       1  CHD01       0.4000
     43 H8         -0.9050    1.6750   -1.0350 H       1  CHD01       0.0000
     44 H9          0.3520   -0.7750   -2.3350 H       1  CHD01       0.0000
     45 H111        2.5030    0.1510   -1.6740 H       1  CHD01       0.0000
     46 H112        1.7080    1.5580   -0.9400 H       1  CHD01       0.0000
     47 H12         2.3260   -0.0570    0.8150 H       1  CHD01       0.0000
     48 HO12        2.2220   -1.9200   -0.5360 H       1  CHD01       0.4000
     49 H14        -0.9410   -1.3030   -0.3740 H       1  CHD01       0.0000
     50 H151       -3.0840   -0.5520    0.4470 H       1  CHD01       0.0000
     51 H152       -2.4270    1.0560    0.8940 H       1  CHD01       0.0000
     52 H161       -2.0850   -1.6090    2.2910 H       1  CHD01       0.0000
     53 H162       -2.1250    0.0330    2.9930 H       1  CHD01       0.0000
     54 H17         0.2130   -1.5460    2.2000 H       1  CHD01       0.0000
     55 H181        0.3040    2.1240    0.0300 H       1  CHD01       0.0000
     56 H182       -0.8480    1.9490    1.3750 H       1  CHD01       0.0000
     57 H183        0.9010    1.9690    1.7000 H       1  CHD01       0.0000
     58 H191        0.6360    3.2220   -3.8050 H       1  CHD01       0.0000
     59 H192       -0.3830    2.8550   -2.3930 H       1  CHD01       0.0000
     60 H193        1.3890    2.7870   -2.2520 H       1  CHD01       0.0000
     61 H20        -0.0990    1.2940    3.2920 H       1  CHD01       0.0000
     62 H211        2.2760   -0.6220    3.3090 H       1  CHD01       0.0000
     63 H212        2.1430    0.8560    2.3280 H       1  CHD01       0.0000
     64 H213        2.2220    0.9690    4.1020 H       1  CHD01       0.0000
     65 H221       -1.1700   -0.4400    4.7030 H       1  CHD01       0.0000
     66 H222        0.3410   -1.3800    4.6960 H       1  CHD01       0.0000
     67 H231        1.5230    0.5130    5.7760 H       1  CHD01       0.0000
     68 H232        0.0110    1.4520    5.7830 H       1  CHD01       0.0000
     69 H26         0.1240   -0.0780    9.1240 H       1  CHD01       0.5000
@<TRIPOS>BOND
     1     1     2    1
     2     1    12    1
     3     1    30    1
     4     1    31    1
     5     2     3    1
     6     2    32    1
     7     2    33    1
     8     3     4    1
     9     3     5    1
    10     3    34    1
    11     4    35    1
    12     5     6    1
    13     5    36    1
    14     5    37    1
    15     6     7    1
    16     6    12    1
    17     6    38    1
    18     7     8    1
    19     7    39    1
    20     7    40    1
    21     8     9    1
    22     8    10    1
    23     8    41    1
    24     9    42    1
    25    10    11    1
    26    10    17    1
    27    10    43    1
    28    11    12    1
    29    11    13    1
    30    11    44    1
    31    12    22    1
    32    13    14    1
    33    13    45    1
    34    13    46    1
    35    14    15    1
    36    14    16    1
    37    14    47    1
    38    15    48    1
    39    16    17    1
    40    16    20    1
    41    16    21    1
    42    17    18    1
    43    17    49    1
    44    18    19    1
    45    18    50    1
    46    18    51    1
    47    19    20    1
    48    19    52    1
    49    19    53    1
    50    20    23    1
    51    20    54    1
    52    21    55    1
    53    21    56    1
    54    21    57    1
    55    22    58    1
    56    22    59    1
    57    22    60    1
    58    23    24    1
    59    23    25    1
    60    23    61    1
    61    24    62    1
    62    24    63    1
    63    24    64    1
    64    25    26    1
    65    25    65    1
    66    25    66    1
    67    26    28    1
    68    26    67    1
    69    26    68    1
    70    27    28    2
    71    28    29    1
    72    29    69    1
