# created with PyMOL 3.1.0
@<TRIPOS>MOLECULE
TCH
80 83 1                 
SMALL
USER_CHARGES
@<TRIPOS>ATOM
1	  C1	-6.554	1.770	0.820	C.3	1	TCH0	0.000	
2	  C2	-6.955	1.754	-0.656	C.3	1	TCH0	0.000	
3	  C3	-7.861	0.551	-0.926	C.3	1	TCH0	0.000	
4	  O3	-8.234	0.535	-2.305	O.3	1	TCH0	0.000	
5	  C4	-7.113	-0.739	-0.585	C.3	1	TCH0	0.000	
6	  C5	-6.711	-0.722	0.892	C.3	1	TCH0	0.000	
7	  C6	-5.964	-2.013	1.230	C.3	1	TCH0	0.000	
8	  C7	-4.713	-2.124	0.356	C.3	1	TCH0	0.000	
9	  O7	-5.093	-2.139	-1.021	O.3	1	TCH0	0.000	
10	  C8	-3.800	-0.926	0.621	C.3	1	TCH0	0.000	
11	  C9	-4.552	0.368	0.274	C.3	1	TCH0	0.000	
12	 C10	-5.801	0.480	1.157	C.3	1	TCH0	0.000	
13	 C11	-3.670	1.597	0.462	C.3	1	TCH0	0.000	
14	 C12	-2.364	1.477	-0.342	C.3	1	TCH0	0.000	
15	 O12	-2.658	1.393	-1.738	O.3	1	TCH0	0.000	
16	 C13	-1.668	0.210	0.115	C.3	1	TCH0	0.000	
17	 C14	-2.576	-0.987	-0.275	C.3	1	TCH0	0.000	
18	 C15	-1.638	-2.177	-0.045	C.3	1	TCH0	0.000	
19	 C16	-0.287	-1.668	-0.619	C.3	1	TCH0	0.000	
20	 C17	-0.342	-0.121	-0.562	C.3	1	TCH0	0.000	
21	 C18	-1.479	0.243	1.633	C.3	1	TCH0	0.000	
22	 C19	-5.386	0.500	2.629	C.3	1	TCH0	0.000	
23	 O1S	10.005	0.690	-1.247	O.2	1	TCH0	0.000	
24	 C20	0.826	0.421	0.265	C.3	1	TCH0	0.000	
25	 C21	0.733	1.946	0.340	C.3	1	TCH0	0.000	
26	 C22	2.147	0.021	-0.395	C.3	1	TCH0	0.000	
27	 C23	3.313	0.454	0.495	C.3	1	TCH0	0.000	
28	 C24	4.615	0.061	-0.155	C.2	1	TCH0	0.000	
29	 N24	5.784	0.344	0.452	N.pl3	1	TCH0	0.000	
30	 O24	4.609	-0.509	-1.225	O.2	1	TCH0	0.000	
31	 C25	7.049	-0.038	-0.180	C.3	1	TCH0	0.000	
32	 C26	8.215	0.395	0.711	C.3	1	TCH0	0.000	
33	 S26	9.782	-0.079	-0.072	S.3	1	TCH0	0.000	
34	 O2S	9.927	-1.492	-0.083	O.2	1	TCH0	0.000	
35	 O3S	10.852	0.401	0.898	O.3	1	TCH0	0.000	
36	  H1	-5.909	2.627	1.012	 H	1	TCH0	0.000	
37	 H1A	-7.448	1.841	1.439	 H	1	TCH0	0.000	
38	  H2	-7.490	2.673	-0.897	 H	1	TCH0	0.000	
39	 H2A	-6.061	1.681	-1.275	 H	1	TCH0	0.000	
40	  H3	-8.757	0.625	-0.309	 H	1	TCH0	0.000	
41	 HO3	-8.714	1.324	-2.592	 H	1	TCH0	0.000	
42	  H4	-7.759	-1.595	-0.775	 H	1	TCH0	0.000	
43	 H4A	-6.218	-0.814	-1.203	 H	1	TCH0	0.000	
44	  H5	-7.605	-0.645	1.511	 H	1	TCH0	0.000	
45	  H6	-5.673	-2.000	2.281	 H	1	TCH0	0.000	
46	 H6A	-6.614	-2.868	1.043	 H	1	TCH0	0.000	
47	  H7	-4.182	-3.045	0.597	 H	1	TCH0	0.000	
48	 HO7	-5.674	-2.874	-1.260	 H	1	TCH0	0.000	
49	  H8	-3.506	-0.911	1.670	 H	1	TCH0	0.000	
50	  H9	-4.863	0.327	-0.770	 H	1	TCH0	0.000	
51	 H11	-4.214	2.481	0.129	 H	1	TCH0	0.000	
52	H11A	-3.428	1.705	1.519	 H	1	TCH0	0.000	
53	 H12	-1.728	2.341	-0.149	 H	1	TCH0	0.000	
54	HO12	-3.134	2.160	-2.086	 H	1	TCH0	0.000	
55	 H14	-2.870	-0.917	-1.322	 H	1	TCH0	0.000	
56	 H15	-1.547	-2.397	1.018	 H	1	TCH0	0.000	
57	H15A	-1.986	-3.054	-0.591	 H	1	TCH0	0.000	
58	 H16	0.539	-2.036	-0.011	 H	1	TCH0	0.000	
59	H16A	-0.170	-2.001	-1.651	 H	1	TCH0	0.000	
60	 H17	-0.318	0.295	-1.569	 H	1	TCH0	0.000	
61	 H18	-2.450	0.351	2.118	 H	1	TCH0	0.000	
62	H18A	-1.011	-0.685	1.961	 H	1	TCH0	0.000	
63	H18B	-0.843	1.086	1.902	 H	1	TCH0	0.000	
64	 H19	-4.735	1.355	2.812	 H	1	TCH0	0.000	
65	H19A	-6.275	0.580	3.256	 H	1	TCH0	0.000	
66	H19B	-4.854	-0.420	2.869	 H	1	TCH0	0.000	
67	 H20	0.782	0.004	1.272	 H	1	TCH0	0.000	
68	 H21	1.565	2.332	0.929	 H	1	TCH0	0.000	
69	H21A	0.777	2.362	-0.667	 H	1	TCH0	0.000	
70	H21B	-0.208	2.230	0.810	 H	1	TCH0	0.000	
71	 H22	2.174	-1.060	-0.529	 H	1	TCH0	0.000	
72	 H37	2.230	0.510	-1.366	 H	1	TCH0	0.000	
73	 H23	3.286	1.536	0.629	 H	1	TCH0	0.000	
74	 H39	3.230	-0.034	1.466	 H	1	TCH0	0.000	
75	HN24	5.788	0.800	1.309	 H	1	TCH0	0.000	
76	 H25	7.076	-1.120	-0.314	 H	1	TCH0	0.000	
77	H25A	7.132	0.450	-1.151	 H	1	TCH0	0.000	
78	 H26	8.188	1.476	0.844	 H	1	TCH0	0.000	
79	H26A	8.132	-0.094	1.681	 H	1	TCH0	0.000	
80	HO3S	11.756	0.215	0.610	 H	1	TCH0	0.000	
@<TRIPOS>BOND
1 1 2 1
2 2 3 1
3 3 4 1
4 3 5 1
5 5 6 1
6 6 7 1
7 7 8 1
8 8 9 1
9 8 10 1
10 10 11 1
11 11 12 1
12 1 12 1
13 6 12 1
14 11 13 1
15 13 14 1
16 14 15 1
17 14 16 1
18 16 17 1
19 10 17 1
20 17 18 1
21 18 19 1
22 19 20 1
23 16 20 1
24 16 21 1
25 12 22 1
26 23 33 2
27 20 24 1
28 24 25 1
29 24 26 1
30 26 27 1
31 27 28 1
32 28 30 2
33 28 29 1
34 29 31 1
35 31 32 1
36 32 33 1
37 33 35 1
38 33 34 2
39 1 36 1
40 1 37 1
41 2 38 1
42 2 39 1
43 3 40 1
44 4 41 1
45 5 42 1
46 5 43 1
47 6 44 1
48 7 45 1
49 7 46 1
50 8 47 1
51 9 48 1
52 10 49 1
53 11 50 1
54 13 51 1
55 13 52 1
56 14 53 1
57 15 54 1
58 17 55 1
59 18 56 1
60 18 57 1
61 19 58 1
62 19 59 1
63 20 60 1
64 21 61 1
65 21 62 1
66 21 63 1
67 22 64 1
68 22 65 1
69 22 66 1
70 24 67 1
71 25 68 1
72 25 69 1
73 25 70 1
74 26 71 1
75 26 72 1
76 27 73 1
77 27 74 1
78 29 75 1
79 31 76 1
80 31 77 1
81 32 78 1
82 32 79 1
83 35 80 1
@<TRIPOS>SUBSTRUCTURE
1	TCH0	1	GROUP	1 ****	TCH
