# created with PyMOL 3.1.0
@<TRIPOS>MOLECULE
CHD
69 72 1                 
SMALL
USER_CHARGES
@<TRIPOS>ATOM
1	  C1	1.815	0.775	-4.042	C.3	1	CHD0	0.000	
2	  C2	1.791	-0.702	-4.440	C.3	1	CHD0	0.000	
3	  C3	0.601	-0.962	-5.365	C.3	1	CHD0	0.000	
4	  O3	0.579	-2.342	-5.735	O.3	1	CHD0	0.000	
5	  C4	-0.696	-0.608	-4.638	C.3	1	CHD0	0.000	
6	  C5	-0.673	0.869	-4.240	C.3	1	CHD0	0.000	
7	  C6	-1.972	1.222	-3.514	C.3	1	CHD0	0.000	
8	  C7	-2.105	0.362	-2.255	C.3	1	CHD0	0.000	
9	  O7	-2.125	-1.018	-2.622	O.3	1	CHD0	0.000	
10	  C8	-0.916	0.626	-1.330	C.3	1	CHD0	0.000	
11	  C9	0.395	0.275	-2.049	C.3	1	CHD0	0.000	
12	 C10	0.517	1.128	-3.313	C.3	1	CHD0	0.000	
13	 C11	1.609	0.494	-1.153	C.3	1	CHD0	0.000	
14	 C12	1.473	-0.273	0.172	C.3	1	CHD0	0.000	
15	 O12	1.402	-1.677	-0.084	O.3	1	CHD0	0.000	
16	 C13	0.176	0.131	0.840	C.3	1	CHD0	0.000	
17	 C14	-1.003	-0.251	-0.096	C.3	1	CHD0	0.000	
18	 C15	-2.213	-0.009	0.813	C.3	1	CHD0	0.000	
19	 C16	-1.742	-0.581	2.178	C.3	1	CHD0	0.000	
20	 C17	-0.194	-0.536	2.160	C.3	1	CHD0	0.000	
21	 C18	0.130	1.653	0.998	C.3	1	CHD0	0.000	
22	 C19	0.541	2.604	-2.912	C.3	1	CHD0	0.000	
23	 C20	0.325	0.291	3.337	C.3	1	CHD0	0.000	
24	 C21	1.851	0.380	3.264	C.3	1	CHD0	0.000	
25	 C22	-0.083	-0.377	4.651	C.3	1	CHD0	0.000	
26	 C23	0.436	0.450	5.828	C.3	1	CHD0	0.000	
27	 O25	-0.604	-1.235	7.105	O.co2	1	CHD0	0.000	
28	 C24	0.033	-0.208	7.122	C.2	1	CHD0	0.000	
29	 O26	0.382	0.344	8.294	O.3	1	CHD0	0.000	
30	 H11	2.664	0.960	-3.383	 H	1	CHD0	0.000	
31	H12A	1.908	1.391	-4.937	 H	1	CHD0	0.000	
32	 H21	1.698	-1.317	-3.545	 H	1	CHD0	0.000	
33	 H22	2.717	-0.953	-4.958	 H	1	CHD0	0.000	
34	  H3	0.696	-0.347	-6.260	 H	1	CHD0	0.000	
35	 HO3	1.413	-2.523	-6.189	 H	1	CHD0	0.000	
36	 H41	-0.791	-1.223	-3.743	 H	1	CHD0	0.000	
37	 H42	-1.544	-0.793	-5.297	 H	1	CHD0	0.000	
38	  H5	-0.577	1.484	-5.135	 H	1	CHD0	0.000	
39	 H61	-2.819	1.035	-4.173	 H	1	CHD0	0.000	
40	 H62	-1.956	2.275	-3.233	 H	1	CHD0	0.000	
41	  H7	-3.031	0.614	-1.739	 H	1	CHD0	0.000	
42	 HO7	-2.888	-1.141	-3.204	 H	1	CHD0	0.000	
43	  H8	-0.905	1.675	-1.035	 H	1	CHD0	0.000	
44	  H9	0.352	-0.775	-2.335	 H	1	CHD0	0.000	
45	H111	2.503	0.151	-1.674	 H	1	CHD0	0.000	
46	H112	1.708	1.558	-0.940	 H	1	CHD0	0.000	
47	 H12	2.326	-0.057	0.815	 H	1	CHD0	0.000	
48	HO12	2.222	-1.920	-0.536	 H	1	CHD0	0.000	
49	 H14	-0.941	-1.303	-0.374	 H	1	CHD0	0.000	
50	H151	-3.084	-0.552	0.447	 H	1	CHD0	0.000	
51	H152	-2.427	1.056	0.894	 H	1	CHD0	0.000	
52	H161	-2.085	-1.609	2.291	 H	1	CHD0	0.000	
53	H162	-2.125	0.033	2.993	 H	1	CHD0	0.000	
54	 H17	0.213	-1.546	2.200	 H	1	CHD0	0.000	
55	H181	0.304	2.124	0.030	 H	1	CHD0	0.000	
56	H182	-0.848	1.949	1.375	 H	1	CHD0	0.000	
57	H183	0.901	1.969	1.700	 H	1	CHD0	0.000	
58	H191	0.636	3.222	-3.805	 H	1	CHD0	0.000	
59	H192	-0.383	2.855	-2.393	 H	1	CHD0	0.000	
60	H193	1.389	2.787	-2.252	 H	1	CHD0	0.000	
61	 H20	-0.099	1.294	3.292	 H	1	CHD0	0.000	
62	H211	2.276	-0.622	3.309	 H	1	CHD0	0.000	
63	H212	2.143	0.856	2.328	 H	1	CHD0	0.000	
64	H213	2.222	0.969	4.102	 H	1	CHD0	0.000	
65	H221	-1.170	-0.440	4.703	 H	1	CHD0	0.000	
66	H222	0.341	-1.380	4.696	 H	1	CHD0	0.000	
67	H231	1.523	0.513	5.776	 H	1	CHD0	0.000	
68	H232	0.011	1.452	5.783	 H	1	CHD0	0.000	
69	 H26	0.124	-0.078	9.124	 H	1	CHD0	0.000	
@<TRIPOS>BOND
1 1 2 1
2 1 12 1
3 1 30 1
4 1 31 1
5 2 3 1
6 2 32 1
7 2 33 1
8 3 4 1
9 3 5 1
10 3 34 1
11 4 35 1
12 5 6 1
13 5 36 1
14 5 37 1
15 6 7 1
16 6 12 1
17 6 38 1
18 7 8 1
19 7 39 1
20 7 40 1
21 8 9 1
22 8 10 1
23 8 41 1
24 9 42 1
25 10 11 1
26 10 17 1
27 10 43 1
28 11 12 1
29 11 13 1
30 11 44 1
31 12 22 1
32 13 14 1
33 13 45 1
34 13 46 1
35 14 15 1
36 14 16 1
37 14 47 1
38 15 48 1
39 16 17 1
40 16 20 1
41 16 21 1
42 17 18 1
43 17 49 1
44 18 19 1
45 18 50 1
46 18 51 1
47 19 20 1
48 19 52 1
49 19 53 1
50 20 23 1
51 20 54 1
52 21 55 1
53 21 56 1
54 21 57 1
55 22 58 1
56 22 59 1
57 22 60 1
58 23 24 1
59 23 25 1
60 23 61 1
61 24 62 1
62 24 63 1
63 24 64 1
64 25 26 1
65 25 65 1
66 25 66 1
67 26 28 1
68 26 67 1
69 26 68 1
70 27 28 2
71 28 29 1
72 29 69 1
@<TRIPOS>SUBSTRUCTURE
1	CHD0	1	GROUP	1 ****	CHD
