@<TRIPOS>MOLECULE
TCH
 80 83 0 0 0
SMALL
USER_CHARGES

@<TRIPOS>ATOM
      1 C1         -6.5540    1.7700    0.8200 C.3     1  TCH01       0.0000
      2 C2         -6.9550    1.7540   -0.6560 C.3     1  TCH01       0.0000
      3 C3         -7.8610    0.5510   -0.9260 C.3     1  TCH01       0.2800
      4 O3         -8.2340    0.5350   -2.3050 O.3     1  TCH01      -0.6800
      5 C4         -7.1130   -0.7390   -0.5850 C.3     1  TCH01       0.0000
      6 C5         -6.7110   -0.7220    0.8920 C.3     1  TCH01       0.0000
      7 C6         -5.9640   -2.0130    1.2300 C.3     1  TCH01       0.0000
      8 C7         -4.7130   -2.1240    0.3560 C.3     1  TCH01       0.2800
      9 O7         -5.0930   -2.1390   -1.0210 O.3     1  TCH01      -0.6800
     10 C8         -3.8000   -0.9260    0.6210 C.3     1  TCH01       0.0000
     11 C9         -4.5520    0.3680    0.2740 C.3     1  TCH01       0.0000
     12 C10        -5.8010    0.4800    1.1570 C.3     1  TCH01       0.0000
     13 C11        -3.6700    1.5970    0.4620 C.3     1  TCH01       0.0000
     14 C12        -2.3640    1.4770   -0.3420 C.3     1  TCH01       0.2800
     15 O12        -2.6580    1.3930   -1.7380 O.3     1  TCH01      -0.6800
     16 C13        -1.6680    0.2100    0.1150 C.3     1  TCH01       0.0000
     17 C14        -2.5760   -0.9870   -0.2750 C.3     1  TCH01       0.0000
     18 C15        -1.6380   -2.1770   -0.0450 C.3     1  TCH01       0.0000
     19 C16        -0.2870   -1.6680   -0.6190 C.3     1  TCH01       0.0000
     20 C17        -0.3420   -0.1210   -0.5620 C.3     1  TCH01       0.0000
     21 C18        -1.4790    0.2430    1.6330 C.3     1  TCH01       0.0000
     22 C19        -5.3860    0.5000    2.6290 C.3     1  TCH01       0.0000
     23 O1S        10.0050    0.6900   -1.2470 O.2     1  TCH01      -0.6500
     24 C20         0.8260    0.4210    0.2650 C.3     1  TCH01       0.0000
     25 C21         0.7330    1.9460    0.3400 C.3     1  TCH01       0.0000
     26 C22         2.1470    0.0210   -0.3950 C.3     1  TCH01       0.0000
     27 C23         3.3130    0.4540    0.4950 C.3     1  TCH01       0.0610
     28 C24         4.6150    0.0610   -0.1550 C.2     1  TCH01       0.5690
     29 N24         5.7840    0.3440    0.4520 N.am    1  TCH01      -0.7301
     30 O24         4.6090   -0.5090   -1.2250 O.2     1  TCH01      -0.5700
     31 C25         7.0490   -0.0380   -0.1800 C.3     1  TCH01       0.3001
     32 C26         8.2150    0.3950    0.7110 C.3     1  TCH01       0.1052
     33 S26         9.7820   -0.0790   -0.0720 S.O2    1  TCH01       1.3785
     34 O2S         9.9270   -1.4920   -0.0830 O.2     1  TCH01      -0.6500
     35 O3S        10.8520    0.4010    0.8980 O.3     1  TCH01      -0.6837
     36 H1         -5.9090    2.6270    1.0120 H       1  TCH01       0.0000
     37 H1A        -7.4480    1.8410    1.4390 H       1  TCH01       0.0000
     38 H2         -7.4900    2.6730   -0.8970 H       1  TCH01       0.0000
     39 H2A        -6.0610    1.6810   -1.2750 H       1  TCH01       0.0000
     40 H3         -8.7570    0.6250   -0.3090 H       1  TCH01       0.0000
     41 HO3        -8.7140    1.3240   -2.5920 H       1  TCH01       0.4000
     42 H4         -7.7590   -1.5950   -0.7750 H       1  TCH01       0.0000
     43 H4A        -6.2180   -0.8140   -1.2030 H       1  TCH01       0.0000
     44 H5         -7.6050   -0.6450    1.5110 H       1  TCH01       0.0000
     45 H6         -5.6730   -2.0000    2.2810 H       1  TCH01       0.0000
     46 H6A        -6.6140   -2.8680    1.0430 H       1  TCH01       0.0000
     47 H7         -4.1820   -3.0450    0.5970 H       1  TCH01       0.0000
     48 HO7        -5.6740   -2.8740   -1.2600 H       1  TCH01       0.4000
     49 H8         -3.5060   -0.9110    1.6700 H       1  TCH01       0.0000
     50 H9         -4.8630    0.3270   -0.7700 H       1  TCH01       0.0000
     51 H11        -4.2140    2.4810    0.1290 H       1  TCH01       0.0000
     52 H11A       -3.4280    1.7050    1.5190 H       1  TCH01       0.0000
     53 H12        -1.7280    2.3410   -0.1490 H       1  TCH01       0.0000
     54 HO12       -3.1340    2.1600   -2.0860 H       1  TCH01       0.4000
     55 H14        -2.8700   -0.9170   -1.3220 H       1  TCH01       0.0000
     56 H15        -1.5470   -2.3970    1.0180 H       1  TCH01       0.0000
     57 H15A       -1.9860   -3.0540   -0.5910 H       1  TCH01       0.0000
     58 H16         0.5390   -2.0360   -0.0110 H       1  TCH01       0.0000
     59 H16A       -0.1700   -2.0010   -1.6510 H       1  TCH01       0.0000
     60 H17        -0.3180    0.2950   -1.5690 H       1  TCH01       0.0000
     61 H18        -2.4500    0.3510    2.1180 H       1  TCH01       0.0000
     62 H18A       -1.0110   -0.6850    1.9610 H       1  TCH01       0.0000
     63 H18B       -0.8430    1.0860    1.9020 H       1  TCH01       0.0000
     64 H19        -4.7350    1.3550    2.8120 H       1  TCH01       0.0000
     65 H19A       -6.2750    0.5800    3.2560 H       1  TCH01       0.0000
     66 H19B       -4.8540   -0.4200    2.8690 H       1  TCH01       0.0000
     67 H20         0.7820    0.0040    1.2720 H       1  TCH01       0.0000
     68 H21         1.5650    2.3320    0.9290 H       1  TCH01       0.0000
     69 H21A        0.7770    2.3620   -0.6670 H       1  TCH01       0.0000
     70 H21B       -0.2080    2.2300    0.8100 H       1  TCH01       0.0000
     71 H22         2.1740   -1.0600   -0.5290 H       1  TCH01       0.0000
     72 H37         2.2300    0.5100   -1.3660 H       1  TCH01       0.0000
     73 H23         3.2860    1.5360    0.6290 H       1  TCH01       0.0000
     74 H39         3.2300   -0.0340    1.4660 H       1  TCH01       0.0000
     75 HN24        5.7880    0.8000    1.3090 H       1  TCH01       0.3700
     76 H25         7.0760   -1.1200   -0.3140 H       1  TCH01       0.0000
     77 H25A        7.1320    0.4500   -1.1510 H       1  TCH01       0.0000
     78 H26         8.1880    1.4760    0.8440 H       1  TCH01       0.0000
     79 H26A        8.1320   -0.0940    1.6810 H       1  TCH01       0.0000
     80 HO3S       11.7560    0.2150    0.6100 H       1  TCH01       0.5000
@<TRIPOS>BOND
     1     1     2    1
     2     2     3    1
     3     3     4    1
     4     3     5    1
     5     5     6    1
     6     6     7    1
     7     7     8    1
     8     8     9    1
     9     8    10    1
    10    10    11    1
    11    11    12    1
    12     1    12    1
    13     6    12    1
    14    11    13    1
    15    13    14    1
    16    14    15    1
    17    14    16    1
    18    16    17    1
    19    10    17    1
    20    17    18    1
    21    18    19    1
    22    19    20    1
    23    16    20    1
    24    16    21    1
    25    12    22    1
    26    23    33    2
    27    20    24    1
    28    24    25    1
    29    24    26    1
    30    26    27    1
    31    27    28    1
    32    28    30    2
    33    28    29   am
    34    29    31    1
    35    31    32    1
    36    32    33    1
    37    33    35    1
    38    33    34    2
    39     1    36    1
    40     1    37    1
    41     2    38    1
    42     2    39    1
    43     3    40    1
    44     4    41    1
    45     5    42    1
    46     5    43    1
    47     6    44    1
    48     7    45    1
    49     7    46    1
    50     8    47    1
    51     9    48    1
    52    10    49    1
    53    11    50    1
    54    13    51    1
    55    13    52    1
    56    14    53    1
    57    15    54    1
    58    17    55    1
    59    18    56    1
    60    18    57    1
    61    19    58    1
    62    19    59    1
    63    20    60    1
    64    21    61    1
    65    21    62    1
    66    21    63    1
    67    22    64    1
    68    22    65    1
    69    22    66    1
    70    24    67    1
    71    25    68    1
    72    25    69    1
    73    25    70    1
    74    26    71    1
    75    26    72    1
    76    27    73    1
    77    27    74    1
    78    29    75    1
    79    31    76    1
    80    31    77    1
    81    32    78    1
    82    32    79    1
    83    35    80    1
