@<TRIPOS>MOLECULE
DOC
 68 71 0 0 0
SMALL
USER_CHARGES

@<TRIPOS>ATOM
      1 H15         0.9140   -2.1300    0.0000 H       1  UNK01       0.0000
      2 H14        -0.3590   -3.7570    0.8890 H       1  UNK01       0.0000
      3 H18         2.1120   -4.0720    0.9050 H       1  UNK01       0.4000
      4 H17         2.0730   -3.3100    0.0000 H       1  UNK01       0.0000
      5 H16         2.3520   -1.4830    0.0000 H       1  UNK01       0.0000
      6 H19         4.2180   -2.0850   -0.9680 H       1  UNK01       0.0000
      7 H23         5.9850   -0.1760    0.8890 H       1  UNK01       0.0000
      8 H22         5.8850   -0.0920   -0.9680 H       1  UNK01       0.0000
      9 H29         2.7170    2.5590    0.8890 H       1  UNK01       0.0000
     10 H21         3.3090   -1.0440    0.0000 H       1  UNK01       0.0000
     11 H27         4.7180    3.2900    0.8890 H       1  UNK01       0.0000
     12 H20         4.3180   -2.1680    0.8890 H       1  UNK01       0.0000
     13 H28         2.8170    2.4750   -0.9680 H       1  UNK01       0.0000
     14 H25         7.4700    2.3320    0.9050 H       1  UNK01       0.4000
     15 H32         1.5130    1.8730   -1.0270 H       1  UNK01       0.0000
     16 H31         2.0830    2.5550    0.5150 H       1  UNK01       0.0000
     17 H30         0.9420    1.1890    0.5130 H       1  UNK01       0.0000
     18 H33         2.1480    1.0620    0.0000 H       1  UNK01       0.0000
     19 H36        -1.4100    0.9300   -0.9680 H       1  UNK01       0.0000
     20 H35         0.4920    1.7450    0.8890 H       1  UNK01       0.0000
     21 H34         0.4690    1.6170   -0.9680 H       1  UNK01       0.0000
     22 H24         5.9320    2.7830    0.0000 H       1  UNK01       0.0000
     23 H40        -2.8310    0.1720   -1.0270 H       1  UNK01       0.0000
     24 H39        -2.3350    0.9100    0.5150 H       1  UNK01       0.0000
     25 H38        -3.3270   -0.5680    0.5130 H       1  UNK01       0.0000
     26 H26         4.6960    3.1620   -0.9680 H       1  UNK01       0.0000
     27 H37        -1.5090    1.0140    0.8890 H       1  UNK01       0.0000
     28 H01        -5.9620   -1.5530   -0.5130 H       1  UNK01       0.0000
     29 H02        -4.8660   -2.9540   -0.5150 H       1  UNK01       0.0000
     30 H03        -5.4140   -2.2550    1.0270 H       1  UNK01       0.0000
     31 H04        -4.7560   -0.3740    0.0000 H       1  UNK01       0.0000
     32 H05        -3.7640    0.6890   -0.9680 H       1  UNK01       0.0000
     33 H06        -3.6610    0.7690    0.8890 H       1  UNK01       0.0000
     34 H07        -5.9430    0.6310    0.9680 H       1  UNK01       0.0000
     35 H08        -6.0460    0.5510   -0.8890 H       1  UNK01       0.0000
     36 H09        -7.4490    3.1050   -0.9050 H       1  UNK01       0.5000
     37 H10        -3.5660   -1.2580    0.0000 H       1  UNK01       0.0000
     38 H11        -2.6030   -3.6140   -0.8800 H       1  UNK01       0.0000
     39 H12        -2.5950   -3.6030    0.8890 H       1  UNK01       0.0000
     40 H13        -0.3520   -3.7680   -0.8800 H       1  UNK01       0.0000
     41 C          -5.1280   -2.0300    0.0000 C.3     1  UNK01       0.0000
     42 C          -3.9470   -1.1050    0.0000 C.3     1  UNK01       0.0000
     43 C          -4.1580    0.3800    0.0000 C.3     1  UNK01       0.0000
     44 C          -5.5490    0.9400    0.0000 C.3     1  UNK01       0.0610
     45 C          -5.7600    2.4250    0.0000 C.2     1  UNK01       0.6590
     46 O          -4.5790    3.3500    0.0000 O.2     1  UNK01      -0.5700
     47 O          -7.1520    2.9850    0.0000 O.3     1  UNK01      -0.6500
     48 C          -2.5550   -1.6650    0.0000 C.3     1  UNK01       0.0000
     49 C          -2.1900   -3.1200    0.0000 C.3     1  UNK01       0.0000
     50 C          -0.6940   -3.2230    0.0000 C.3     1  UNK01       0.0000
     51 C          -0.1340   -1.8310    0.0000 C.3     1  UNK01       0.0000
     52 C           1.2750   -1.3160    0.0000 C.3     1  UNK01       0.0000
     53 C           2.4250   -2.2790    0.0000 C.3     1  UNK01       0.2800
     54 O           2.1670   -3.7560    0.0000 O.3     1  UNK01      -0.6800
     55 C           3.8340   -1.7630    0.0000 C.3     1  UNK01       0.0000
     56 C           4.0930   -0.2860    0.0000 C.3     1  UNK01       0.0000
     57 C           5.5010    0.2290    0.0000 C.3     1  UNK01       0.0000
     58 C           5.7600    1.7070    0.0000 C.3     1  UNK01       0.2800
     59 O           7.1690    2.2220    0.0000 O.3     1  UNK01      -0.6800
     60 C           4.6090    2.6690    0.0000 C.3     1  UNK01       0.0000
     61 C           3.2010    2.1540    0.0000 C.3     1  UNK01       0.0000
     62 C           2.9420    0.6770    0.0000 C.3     1  UNK01       0.0000
     63 C           1.7920    1.6390    0.0000 C.3     1  UNK01       0.0000
     64 C           1.5330    0.1620    0.0000 C.3     1  UNK01       0.0000
     65 C           0.3830    1.1240    0.0000 C.3     1  UNK01       0.0000
     66 C          -1.0260    0.6090    0.0000 C.3     1  UNK01       0.0000
     67 C          -1.2840   -0.8680    0.0000 C.3     1  UNK01       0.0000
     68 C          -2.5290   -0.0310    0.0000 C.3     1  UNK01       0.0000
@<TRIPOS>BOND
     1    28    41    1
     2    29    41    1
     3    30    41    1
     4    31    42    1
     5    41    42    1
     6    42    43    1
     7    42    48    1
     8    32    43    1
     9    33    43    1
    10    43    44    1
    11    34    44    1
    12    35    44    1
    13    44    45    1
    14    45    46    2
    15    45    47    1
    16    36    47    1
    17    37    48    1
    18    48    49    1
    19    38    49    1
    20    39    49    1
    21    49    50    1
    22     2    50    1
    23    40    50    1
    24     1    51    1
    25    50    51    1
    26    51    52    1
    27     5    52    1
    28    52    53    1
    29     4    53    1
    30    53    54    1
    31    53    55    1
    32     3    54    1
    33     6    55    1
    34    12    55    1
    35    10    56    1
    36    55    56    1
    37    56    57    1
    38     7    57    1
    39     8    57    1
    40    57    58    1
    41    22    58    1
    42    58    59    1
    43    58    60    1
    44    14    59    1
    45    11    60    1
    46    26    60    1
    47    60    61    1
    48     9    61    1
    49    13    61    1
    50    61    62    1
    51    56    62    1
    52    62    63    1
    53    62    64    1
    54    15    63    1
    55    16    63    1
    56    17    63    1
    57    18    64    1
    58    52    64    1
    59    64    65    1
    60    20    65    1
    61    21    65    1
    62    65    66    1
    63    19    66    1
    64    27    66    1
    65    66    67    1
    66    48    67    1
    67    51    67    1
    68    67    68    1
    69    23    68    1
    70    24    68    1
    71    25    68    1
