# created with PyMOL 3.1.0
@<TRIPOS>MOLECULE
DOC
68 71 1                 
SMALL
USER_CHARGES
@<TRIPOS>ATOM
1	 H15	0.914	-2.130	0.000	 H	1	UNK0	0.000	
2	 H14	-0.359	-3.757	0.889	 H	1	UNK0	0.000	
3	 H18	2.112	-4.072	0.905	 H	1	UNK0	0.000	
4	 H17	2.073	-3.310	0.000	 H	1	UNK0	0.000	
5	 H16	2.352	-1.483	0.000	 H	1	UNK0	0.000	
6	 H19	4.218	-2.085	-0.968	 H	1	UNK0	0.000	
7	 H23	5.985	-0.176	0.889	 H	1	UNK0	0.000	
8	 H22	5.885	-0.092	-0.968	 H	1	UNK0	0.000	
9	 H29	2.717	2.559	0.889	 H	1	UNK0	0.000	
10	 H21	3.309	-1.044	0.000	 H	1	UNK0	0.000	
11	 H27	4.718	3.290	0.889	 H	1	UNK0	0.000	
12	 H20	4.318	-2.168	0.889	 H	1	UNK0	0.000	
13	 H28	2.817	2.475	-0.968	 H	1	UNK0	0.000	
14	 H25	7.470	2.332	0.905	 H	1	UNK0	0.000	
15	 H32	1.513	1.873	-1.027	 H	1	UNK0	0.000	
16	 H31	2.083	2.555	0.515	 H	1	UNK0	0.000	
17	 H30	0.942	1.189	0.513	 H	1	UNK0	0.000	
18	 H33	2.148	1.062	0.000	 H	1	UNK0	0.000	
19	 H36	-1.410	0.930	-0.968	 H	1	UNK0	0.000	
20	 H35	0.492	1.745	0.889	 H	1	UNK0	0.000	
21	 H34	0.469	1.617	-0.968	 H	1	UNK0	0.000	
22	 H24	5.932	2.783	0.000	 H	1	UNK0	0.000	
23	 H40	-2.831	0.172	-1.027	 H	1	UNK0	0.000	
24	 H39	-2.335	0.910	0.515	 H	1	UNK0	0.000	
25	 H38	-3.327	-0.568	0.513	 H	1	UNK0	0.000	
26	 H26	4.696	3.162	-0.968	 H	1	UNK0	0.000	
27	 H37	-1.509	1.014	0.889	 H	1	UNK0	0.000	
28	 H01	-5.962	-1.553	-0.513	 H	1	UNK0	0.000	
29	 H02	-4.866	-2.954	-0.515	 H	1	UNK0	0.000	
30	 H03	-5.414	-2.255	1.027	 H	1	UNK0	0.000	
31	 H04	-4.756	-0.374	0.000	 H	1	UNK0	0.000	
32	 H05	-3.764	0.689	-0.968	 H	1	UNK0	0.000	
33	 H06	-3.661	0.769	0.889	 H	1	UNK0	0.000	
34	 H07	-5.943	0.631	0.968	 H	1	UNK0	0.000	
35	 H08	-6.046	0.551	-0.889	 H	1	UNK0	0.000	
36	 H09	-7.449	3.105	-0.905	 H	1	UNK0	0.000	
37	 H10	-3.566	-1.258	0.000	 H	1	UNK0	0.000	
38	 H11	-2.603	-3.614	-0.880	 H	1	UNK0	0.000	
39	 H12	-2.595	-3.603	0.889	 H	1	UNK0	0.000	
40	 H13	-0.352	-3.768	-0.880	 H	1	UNK0	0.000	
41	   C	-5.128	-2.030	0.000	C.3	1	UNK0	0.000	
42	   C	-3.947	-1.105	0.000	C.3	1	UNK0	0.000	
43	   C	-4.158	0.380	0.000	C.3	1	UNK0	0.000	
44	   C	-5.549	0.940	0.000	C.3	1	UNK0	0.000	
45	   C	-5.760	2.425	0.000	C.2	1	UNK0	0.000	
46	   O	-4.579	3.350	0.000	O.co2	1	UNK0	0.000	
47	   O	-7.152	2.985	0.000	O.3	1	UNK0	0.000	
48	   C	-2.555	-1.665	0.000	C.3	1	UNK0	0.000	
49	   C	-2.190	-3.120	0.000	C.3	1	UNK0	0.000	
50	   C	-0.694	-3.223	0.000	C.3	1	UNK0	0.000	
51	   C	-0.134	-1.831	0.000	C.3	1	UNK0	0.000	
52	   C	1.275	-1.316	0.000	C.3	1	UNK0	0.000	
53	   C	2.425	-2.279	0.000	C.3	1	UNK0	0.000	
54	   O	2.167	-3.756	0.000	O.3	1	UNK0	0.000	
55	   C	3.834	-1.763	0.000	C.3	1	UNK0	0.000	
56	   C	4.093	-0.286	0.000	C.3	1	UNK0	0.000	
57	   C	5.501	0.229	0.000	C.3	1	UNK0	0.000	
58	   C	5.760	1.707	0.000	C.3	1	UNK0	0.000	
59	   O	7.169	2.222	0.000	O.3	1	UNK0	0.000	
60	   C	4.609	2.669	0.000	C.3	1	UNK0	0.000	
61	   C	3.201	2.154	0.000	C.3	1	UNK0	0.000	
62	   C	2.942	0.677	0.000	C.3	1	UNK0	0.000	
63	   C	1.792	1.639	0.000	C.3	1	UNK0	0.000	
64	   C	1.533	0.162	0.000	C.3	1	UNK0	0.000	
65	   C	0.383	1.124	0.000	C.3	1	UNK0	0.000	
66	   C	-1.026	0.609	0.000	C.3	1	UNK0	0.000	
67	   C	-1.284	-0.868	0.000	C.3	1	UNK0	0.000	
68	   C	-2.529	-0.031	0.000	C.3	1	UNK0	0.000	
@<TRIPOS>BOND
1 28 41 1
2 29 41 1
3 30 41 1
4 31 42 1
5 41 42 1
6 42 43 1
7 42 48 1
8 32 43 1
9 33 43 1
10 43 44 1
11 34 44 1
12 35 44 1
13 44 45 1
14 45 46 2
15 45 47 1
16 36 47 1
17 37 48 1
18 48 49 1
19 38 49 1
20 39 49 1
21 49 50 1
22 2 50 1
23 40 50 1
24 1 51 1
25 50 51 1
26 51 52 1
27 5 52 1
28 52 53 1
29 4 53 1
30 53 54 1
31 53 55 1
32 3 54 1
33 6 55 1
34 12 55 1
35 10 56 1
36 55 56 1
37 56 57 1
38 7 57 1
39 8 57 1
40 57 58 1
41 22 58 1
42 58 59 1
43 58 60 1
44 14 59 1
45 11 60 1
46 26 60 1
47 60 61 1
48 9 61 1
49 13 61 1
50 61 62 1
51 56 62 1
52 62 63 1
53 62 64 1
54 15 63 1
55 16 63 1
56 17 63 1
57 18 64 1
58 52 64 1
59 64 65 1
60 20 65 1
61 21 65 1
62 65 66 1
63 19 66 1
64 27 66 1
65 66 67 1
66 48 67 1
67 51 67 1
68 67 68 1
69 23 68 1
70 24 68 1
71 25 68 1
@<TRIPOS>SUBSTRUCTURE
1	UNK0	1	GROUP	1 ****	UNK
